Circuit: * Z:\home\czarnia\Downloads\TP Filtro\LTSpice\importar.asc

Per .tran options, skipping operating point for transient analysis.

Date: Sat Jun 23 16:35:04 2018
Total elapsed time: 3.075 seconds.

tnom = 27
temp = 27
method = modified trap
totiter = 44838
traniter = 44838
tranpoints = 22417
accept = 22360
rejected = 57
matrix size = 80
fillins = 96
solver = Normal
Matrix Compiler1: 8.51 KB object code size  9.3/10.7/[6.6]
Matrix Compiler2: 8.47 KB object code size  6.0/7.3/[6.1]

